data_ZIF-8

_audit_creation_method RASPA-1.0
_audit_creation_date 2023-3-27
_audit_author_name ''

_cell_length_a    16.991
_cell_length_b    16.991
_cell_length_c    16.991
_cell_angle_alpha 90
_cell_angle_beta  90
_cell_angle_gamma 90
_cell_volume      4905.2

_symmetry_cell_setting          triclinic
_symmetry_space_group_name_Hall 'P 1'
_symmetry_space_group_name_H-M  'P 1'
_symmetry_Int_Tables_number     1

_symmetry_equiv_pos_as_xyz 'x,y,z'

loop_
_atom_site_label
_atom_site_type_symbol
_atom_site_fract_x
_atom_site_fract_y
_atom_site_fract_z
_atom_site_charge
C1       C      0.368510000000     0.899140000000     0.687500000000    -0.0116917  
H2       H      0.377700000000     0.858900000000     0.723400000000     0.0168911  
H3       H      0.458700000000     0.079800000000     0.574300000000     0.248339   
H4       H      0.405800000000     0.122800000000     0.636400000000     0.253192   
H5       H      0.372400000000     0.103900000000     0.552500000000     0.253973   
N6       N      0.409730000000     0.968320000000     0.682780000000    -0.207604   
C7       C      0.377050000000     0.007900000000     0.622950000000     0.294218   
C8       C      0.406100000000     0.085500000000     0.593900000000    -0.798835   
Zn9      Zn     0.500000000000     0.000000000000     0.750000000000     0.319584   
C10      C      0.631490000000     0.100860000000     0.687500000000    -0.0117082  
H11      H      0.622300000000     0.141100000000     0.723400000000     0.016891   
H12      H      0.541300000000     0.920200000000     0.574300000000     0.248554   
H13      H      0.594200000000     0.877200000000     0.636400000000     0.253371   
H14      H      0.627600000000     0.896100000000     0.552500000000     0.254164   
N15      N      0.590270000000     0.031680000000     0.682780000000    -0.207828   
C16      C      0.622950000000     0.992100000000     0.622950000000     0.294779   
C17      C      0.593900000000     0.914500000000     0.593900000000    -0.79941    
C18      C      0.631490000000     0.899140000000     0.312500000000    -0.0116917  
H19      H      0.622300000000     0.858900000000     0.276600000000     0.0168922  
H20      H      0.541300000000     0.079800000000     0.425700000000     0.24834    
H21      H      0.594200000000     0.122800000000     0.363600000000     0.253193   
H22      H      0.627600000000     0.103900000000     0.447500000000     0.253972   
N23      N      0.590270000000     0.968320000000     0.317220000000    -0.207604   
C24      C      0.622950000000     0.007900000000     0.377050000000     0.294218   
C25      C      0.593900000000     0.085500000000     0.406100000000    -0.798835   
Zn26     Zn     0.500000000000     0.000000000000     0.250000000000     0.319581   
C27      C      0.368510000000     0.100860000000     0.312500000000    -0.0117124  
H28      H      0.377700000000     0.141100000000     0.276600000000     0.0168887  
H29      H      0.458700000000     0.920200000000     0.425700000000     0.248555   
H30      H      0.405800000000     0.877200000000     0.363600000000     0.253372   
H31      H      0.372400000000     0.896100000000     0.447500000000     0.254165   
N32      N      0.409730000000     0.031680000000     0.317220000000    -0.207829   
C33      C      0.377050000000     0.992100000000     0.377050000000     0.294777   
C34      C      0.406100000000     0.914500000000     0.406100000000    -0.799411   
C35      C      0.687500000000     0.368510000000     0.899140000000    -0.0116917  
H36      H      0.723400000000     0.377700000000     0.858900000000     0.0168911  
H37      H      0.574300000000     0.458700000000     0.079800000000     0.248339   
H38      H      0.636400000000     0.405800000000     0.122800000000     0.253192   
H39      H      0.552500000000     0.372400000000     0.103900000000     0.253973   
N40      N      0.682780000000     0.409730000000     0.968320000000    -0.207604   
C41      C      0.622950000000     0.377050000000     0.007900000000     0.294218   
C42      C      0.593900000000     0.406100000000     0.085500000000    -0.798835   
Zn43     Zn     0.750000000000     0.500000000000     0.000000000000     0.319584   
C44      C      0.687500000000     0.631490000000     0.100860000000    -0.0117082  
H45      H      0.723400000000     0.622300000000     0.141100000000     0.016891   
H46      H      0.574300000000     0.541300000000     0.920200000000     0.248554   
H47      H      0.636400000000     0.594200000000     0.877200000000     0.253371   
H48      H      0.552500000000     0.627600000000     0.896100000000     0.254164   
N49      N      0.682780000000     0.590270000000     0.031680000000    -0.207828   
C50      C      0.622950000000     0.622950000000     0.992100000000     0.294779   
C51      C      0.593900000000     0.593900000000     0.914500000000    -0.79941    
C52      C      0.312500000000     0.631490000000     0.899140000000    -0.0116917  
H53      H      0.276600000000     0.622300000000     0.858900000000     0.0168922  
H54      H      0.425700000000     0.541300000000     0.079800000000     0.24834    
H55      H      0.363600000000     0.594200000000     0.122800000000     0.253193   
H56      H      0.447500000000     0.627600000000     0.103900000000     0.253972   
N57      N      0.317220000000     0.590270000000     0.968320000000    -0.207604   
C58      C      0.377050000000     0.622950000000     0.007900000000     0.294218   
C59      C      0.406100000000     0.593900000000     0.085500000000    -0.798835   
Zn60     Zn     0.250000000000     0.500000000000     0.000000000000     0.319581   
C61      C      0.312500000000     0.368510000000     0.100860000000    -0.0117124  
H62      H      0.276600000000     0.377700000000     0.141100000000     0.0168887  
H63      H      0.425700000000     0.458700000000     0.920200000000     0.248555   
H64      H      0.363600000000     0.405800000000     0.877200000000     0.253372   
H65      H      0.447500000000     0.372400000000     0.896100000000     0.254165   
N66      N      0.317220000000     0.409730000000     0.031680000000    -0.207829   
C67      C      0.377050000000     0.377050000000     0.992100000000     0.294777   
C68      C      0.406100000000     0.406100000000     0.914500000000    -0.799411   
C69      C      0.899140000000     0.312500000000     0.631490000000    -0.0116917  
H70      H      0.858900000000     0.276600000000     0.622300000000     0.0168922  
H71      H      0.079800000000     0.425700000000     0.541300000000     0.24834    
H72      H      0.122800000000     0.363600000000     0.594200000000     0.253193   
H73      H      0.103900000000     0.447500000000     0.627600000000     0.253972   
N74      N      0.968320000000     0.317220000000     0.590270000000    -0.207604   
C75      C      0.007900000000     0.377050000000     0.622950000000     0.294218   
C76      C      0.085500000000     0.406100000000     0.593900000000    -0.798835   
Zn77     Zn     0.000000000000     0.250000000000     0.500000000000     0.319581   
C78      C      0.100860000000     0.312500000000     0.368510000000    -0.0117124  
H79      H      0.141100000000     0.276600000000     0.377700000000     0.0168887  
H80      H      0.920200000000     0.425700000000     0.458700000000     0.248555   
H81      H      0.877200000000     0.363600000000     0.405800000000     0.253372   
H82      H      0.896100000000     0.447500000000     0.372400000000     0.254165   
N83      N      0.031680000000     0.317220000000     0.409730000000    -0.207829   
C84      C      0.992100000000     0.377050000000     0.377050000000     0.294777   
C85      C      0.914500000000     0.406100000000     0.406100000000    -0.799411   
C86      C      0.899140000000     0.687500000000     0.368510000000    -0.0116917  
H87      H      0.858900000000     0.723400000000     0.377700000000     0.0168911  
H88      H      0.079800000000     0.574300000000     0.458700000000     0.248339   
H89      H      0.122800000000     0.636400000000     0.405800000000     0.253192   
H90      H      0.103900000000     0.552500000000     0.372400000000     0.253973   
N91      N      0.968320000000     0.682780000000     0.409730000000    -0.207604   
C92      C      0.007900000000     0.622950000000     0.377050000000     0.294218   
C93      C      0.085500000000     0.593900000000     0.406100000000    -0.798835   
Zn94     Zn     0.000000000000     0.750000000000     0.500000000000     0.319584   
C95      C      0.100860000000     0.687500000000     0.631490000000    -0.0117082  
H96      H      0.141100000000     0.723400000000     0.622300000000     0.016891   
H97      H      0.920200000000     0.574300000000     0.541300000000     0.248554   
H98      H      0.877200000000     0.636400000000     0.594200000000     0.253371   
H99      H      0.896100000000     0.552500000000     0.627600000000     0.254164   
N100     N      0.031680000000     0.682780000000     0.590270000000    -0.207828   
C101     C      0.992100000000     0.622950000000     0.622950000000     0.294779   
C102     C      0.914500000000     0.593900000000     0.593900000000    -0.79941    
C103     C      0.899140000000     0.368510000000     0.687500000000    -0.0123841  
H104     H      0.858900000000     0.377700000000     0.723400000000     0.0131063  
N105     N      0.968320000000     0.409730000000     0.682780000000    -0.209041   
Zn106    Zn     0.000000000000     0.500000000000     0.750000000000     0.319585   
C107     C      0.100860000000     0.631490000000     0.687500000000    -0.0123996  
H108     H      0.141100000000     0.622300000000     0.723400000000     0.0131073  
N109     N      0.031680000000     0.590270000000     0.682780000000    -0.209265   
C110     C      0.899140000000     0.631490000000     0.312500000000    -0.0123841  
H111     H      0.858900000000     0.622300000000     0.276600000000     0.0131078  
N112     N      0.968320000000     0.590270000000     0.317220000000    -0.209041   
Zn113    Zn     0.000000000000     0.500000000000     0.250000000000     0.319581   
C114     C      0.100860000000     0.368510000000     0.312500000000    -0.0124041  
H115     H      0.141100000000     0.377700000000     0.276600000000     0.013106   
N116     N      0.031680000000     0.409730000000     0.317220000000    -0.209266   
C117     C      0.368510000000     0.687500000000     0.899140000000    -0.0123841  
H118     H      0.377700000000     0.723400000000     0.858900000000     0.0131063  
N119     N      0.409730000000     0.682780000000     0.968320000000    -0.209041   
Zn120    Zn     0.500000000000     0.750000000000     0.000000000000     0.319585   
C121     C      0.631490000000     0.687500000000     0.100860000000    -0.0123996  
H122     H      0.622300000000     0.723400000000     0.141100000000     0.0131073  
N123     N      0.590270000000     0.682780000000     0.031680000000    -0.209265   
C124     C      0.631490000000     0.312500000000     0.899140000000    -0.0123841  
H125     H      0.622300000000     0.276600000000     0.858900000000     0.0131078  
N126     N      0.590270000000     0.317220000000     0.968320000000    -0.209041   
Zn127    Zn     0.500000000000     0.250000000000     0.000000000000     0.319581   
C128     C      0.368510000000     0.312500000000     0.100860000000    -0.0124041  
H129     H      0.377700000000     0.276600000000     0.141100000000     0.013106   
N130     N      0.409730000000     0.317220000000     0.031680000000    -0.209266   
C131     C      0.312500000000     0.899140000000     0.631490000000    -0.0123841  
H132     H      0.276600000000     0.858900000000     0.622300000000     0.0131078  
N133     N      0.317220000000     0.968320000000     0.590270000000    -0.209041   
Zn134    Zn     0.250000000000     0.000000000000     0.500000000000     0.319581   
C135     C      0.312500000000     0.100860000000     0.368510000000    -0.0124041  
H136     H      0.276600000000     0.141100000000     0.377700000000     0.013106   
N137     N      0.317220000000     0.031680000000     0.409730000000    -0.209266   
C138     C      0.687500000000     0.899140000000     0.368510000000    -0.0123841  
H139     H      0.723400000000     0.858900000000     0.377700000000     0.0131063  
N140     N      0.682780000000     0.968320000000     0.409730000000    -0.209041   
Zn141    Zn     0.750000000000     0.000000000000     0.500000000000     0.319585   
C142     C      0.687500000000     0.100860000000     0.631490000000    -0.0123996  
H143     H      0.723400000000     0.141100000000     0.622300000000     0.0131073  
N144     N      0.682780000000     0.031680000000     0.590270000000    -0.209265   
C145     C      0.868510000000     0.399140000000     0.187500000000    -0.0116945  
H146     H      0.877700000000     0.358900000000     0.223400000000     0.0168976  
H147     H      0.958700000000     0.579800000000     0.074300000000     0.248471   
H148     H      0.905800000000     0.622800000000     0.136400000000     0.253302   
H149     H      0.872400000000     0.603900000000     0.052500000000     0.254055   
N150     N      0.909730000000     0.468320000000     0.182780000000    -0.207696   
C151     C      0.877050000000     0.507900000000     0.122950000000     0.294503   
C152     C      0.906100000000     0.585500000000     0.093900000000    -0.799141   
C153     C      0.131490000000     0.600860000000     0.187500000000    -0.011713   
H154     H      0.122300000000     0.641100000000     0.223400000000     0.0168776  
H155     H      0.041300000000     0.420200000000     0.074300000000     0.248308   
H156     H      0.094200000000     0.377200000000     0.136400000000     0.253187   
H157     H      0.127600000000     0.396100000000     0.052500000000     0.253955   
N158     N      0.090270000000     0.531680000000     0.182780000000    -0.207725   
C159     C      0.122950000000     0.492100000000     0.122950000000     0.294409   
C160     C      0.093900000000     0.414500000000     0.093900000000    -0.798901   
C161     C      0.131490000000     0.399140000000     0.812500000000    -0.0117093  
H162     H      0.122300000000     0.358900000000     0.776600000000     0.0168797  
H163     H      0.041300000000     0.579800000000     0.925700000000     0.248439   
H164     H      0.094200000000     0.622800000000     0.863600000000     0.25328    
H165     H      0.127600000000     0.603900000000     0.947500000000     0.254099   
N166     N      0.090270000000     0.468320000000     0.817220000000    -0.207739   
C167     C      0.122950000000     0.507900000000     0.877050000000     0.294499   
C168     C      0.093900000000     0.585500000000     0.906100000000    -0.799135   
C169     C      0.868510000000     0.600860000000     0.812500000000    -0.0116869  
H170     H      0.877700000000     0.641100000000     0.776600000000     0.0169098  
H171     H      0.958700000000     0.420200000000     0.925700000000     0.248581   
H172     H      0.905800000000     0.377200000000     0.863600000000     0.253368   
H173     H      0.872400000000     0.396100000000     0.947500000000     0.254175   
N174     N      0.909730000000     0.531680000000     0.817220000000    -0.207706   
C175     C      0.877050000000     0.492100000000     0.877050000000     0.29458    
C176     C      0.906100000000     0.414500000000     0.906100000000    -0.79933    
C177     C      0.187500000000     0.868510000000     0.399140000000    -0.0116945  
H178     H      0.223400000000     0.877700000000     0.358900000000     0.0168976  
H179     H      0.074300000000     0.958700000000     0.579800000000     0.248471   
H180     H      0.136400000000     0.905800000000     0.622800000000     0.253302   
H181     H      0.052500000000     0.872400000000     0.603900000000     0.254055   
N182     N      0.182780000000     0.909730000000     0.468320000000    -0.207696   
C183     C      0.122950000000     0.877050000000     0.507900000000     0.294503   
C184     C      0.093900000000     0.906100000000     0.585500000000    -0.799141   
C185     C      0.187500000000     0.131490000000     0.600860000000    -0.011713   
H186     H      0.223400000000     0.122300000000     0.641100000000     0.0168776  
H187     H      0.074300000000     0.041300000000     0.420200000000     0.248308   
H188     H      0.136400000000     0.094200000000     0.377200000000     0.253187   
H189     H      0.052500000000     0.127600000000     0.396100000000     0.253955   
N190     N      0.182780000000     0.090270000000     0.531680000000    -0.207725   
C191     C      0.122950000000     0.122950000000     0.492100000000     0.294409   
C192     C      0.093900000000     0.093900000000     0.414500000000    -0.798901   
C193     C      0.812500000000     0.131490000000     0.399140000000    -0.0117093  
H194     H      0.776600000000     0.122300000000     0.358900000000     0.0168797  
H195     H      0.925700000000     0.041300000000     0.579800000000     0.248439   
H196     H      0.863600000000     0.094200000000     0.622800000000     0.25328    
H197     H      0.947500000000     0.127600000000     0.603900000000     0.254099   
N198     N      0.817220000000     0.090270000000     0.468320000000    -0.207739   
C199     C      0.877050000000     0.122950000000     0.507900000000     0.294499   
C200     C      0.906100000000     0.093900000000     0.585500000000    -0.799135   
C201     C      0.812500000000     0.868510000000     0.600860000000    -0.0116869  
H202     H      0.776600000000     0.877700000000     0.641100000000     0.0169098  
H203     H      0.925700000000     0.958700000000     0.420200000000     0.248581   
H204     H      0.863600000000     0.905800000000     0.377200000000     0.253368   
H205     H      0.947500000000     0.872400000000     0.396100000000     0.254175   
N206     N      0.817220000000     0.909730000000     0.531680000000    -0.207706   
C207     C      0.877050000000     0.877050000000     0.492100000000     0.29458    
C208     C      0.906100000000     0.906100000000     0.414500000000    -0.79933    
C209     C      0.399140000000     0.812500000000     0.131490000000    -0.0117093  
H210     H      0.358900000000     0.776600000000     0.122300000000     0.0168797  
H211     H      0.579800000000     0.925700000000     0.041300000000     0.248439   
H212     H      0.622800000000     0.863600000000     0.094200000000     0.25328    
H213     H      0.603900000000     0.947500000000     0.127600000000     0.254099   
N214     N      0.468320000000     0.817220000000     0.090270000000    -0.207739   
C215     C      0.507900000000     0.877050000000     0.122950000000     0.294499   
C216     C      0.585500000000     0.906100000000     0.093900000000    -0.799135   
C217     C      0.600860000000     0.812500000000     0.868510000000    -0.0116869  
H218     H      0.641100000000     0.776600000000     0.877700000000     0.0169098  
H219     H      0.420200000000     0.925700000000     0.958700000000     0.248581   
H220     H      0.377200000000     0.863600000000     0.905800000000     0.253368   
H221     H      0.396100000000     0.947500000000     0.872400000000     0.254175   
N222     N      0.531680000000     0.817220000000     0.909730000000    -0.207706   
C223     C      0.492100000000     0.877050000000     0.877050000000     0.29458    
C224     C      0.414500000000     0.906100000000     0.906100000000    -0.79933    
C225     C      0.399140000000     0.187500000000     0.868510000000    -0.0116945  
H226     H      0.358900000000     0.223400000000     0.877700000000     0.0168976  
H227     H      0.579800000000     0.074300000000     0.958700000000     0.248471   
H228     H      0.622800000000     0.136400000000     0.905800000000     0.253302   
H229     H      0.603900000000     0.052500000000     0.872400000000     0.254055   
N230     N      0.468320000000     0.182780000000     0.909730000000    -0.207696   
C231     C      0.507900000000     0.122950000000     0.877050000000     0.294503   
C232     C      0.585500000000     0.093900000000     0.906100000000    -0.799141   
C233     C      0.600860000000     0.187500000000     0.131490000000    -0.011713   
H234     H      0.641100000000     0.223400000000     0.122300000000     0.0168776  
H235     H      0.420200000000     0.074300000000     0.041300000000     0.248308   
H236     H      0.377200000000     0.136400000000     0.094200000000     0.253187   
H237     H      0.396100000000     0.052500000000     0.127600000000     0.253955   
N238     N      0.531680000000     0.182780000000     0.090270000000    -0.207725   
C239     C      0.492100000000     0.122950000000     0.122950000000     0.294409   
C240     C      0.414500000000     0.093900000000     0.093900000000    -0.798901   
C241     C      0.399140000000     0.868510000000     0.187500000000    -0.0123866  
H242     H      0.358900000000     0.877700000000     0.223400000000     0.0131131  
N243     N      0.468320000000     0.909730000000     0.182780000000    -0.209132   
C244     C      0.600860000000     0.131490000000     0.187500000000    -0.0124063  
H245     H      0.641100000000     0.122300000000     0.223400000000     0.0130949  
N246     N      0.531680000000     0.090270000000     0.182780000000    -0.209162   
C247     C      0.399140000000     0.131490000000     0.812500000000    -0.0124011  
H248     H      0.358900000000     0.122300000000     0.776600000000     0.0130966  
N249     N      0.468320000000     0.090270000000     0.817220000000    -0.209176   
C250     C      0.600860000000     0.868510000000     0.812500000000    -0.0123777  
H251     H      0.641100000000     0.877700000000     0.776600000000     0.0131247  
N252     N      0.531680000000     0.909730000000     0.817220000000    -0.209143   
C253     C      0.868510000000     0.187500000000     0.399140000000    -0.0123866  
H254     H      0.877700000000     0.223400000000     0.358900000000     0.0131131  
N255     N      0.909730000000     0.182780000000     0.468320000000    -0.209132   
C256     C      0.131490000000     0.187500000000     0.600860000000    -0.0124063  
H257     H      0.122300000000     0.223400000000     0.641100000000     0.0130949  
N258     N      0.090270000000     0.182780000000     0.531680000000    -0.209162   
C259     C      0.131490000000     0.812500000000     0.399140000000    -0.0124011  
H260     H      0.122300000000     0.776600000000     0.358900000000     0.0130966  
N261     N      0.090270000000     0.817220000000     0.468320000000    -0.209176   
C262     C      0.868510000000     0.812500000000     0.600860000000    -0.0123777  
H263     H      0.877700000000     0.776600000000     0.641100000000     0.0131247  
N264     N      0.909730000000     0.817220000000     0.531680000000    -0.209143   
C265     C      0.812500000000     0.399140000000     0.131490000000    -0.0124011  
H266     H      0.776600000000     0.358900000000     0.122300000000     0.0130966  
N267     N      0.817220000000     0.468320000000     0.090270000000    -0.209176   
C268     C      0.812500000000     0.600860000000     0.868510000000    -0.0123777  
H269     H      0.776600000000     0.641100000000     0.877700000000     0.0131247  
N270     N      0.817220000000     0.531680000000     0.909730000000    -0.209143   
C271     C      0.187500000000     0.399140000000     0.868510000000    -0.0123866  
H272     H      0.223400000000     0.358900000000     0.877700000000     0.0131131  
N273     N      0.182780000000     0.468320000000     0.909730000000    -0.209132   
C274     C      0.187500000000     0.600860000000     0.131490000000    -0.0124063  
H275     H      0.223400000000     0.641100000000     0.122300000000     0.0130949  
N276     N      0.182780000000     0.531680000000     0.090270000000    -0.209162   


