data_ZIF-8\(3)
_audit_creation_date              2023-03-27
_audit_creation_method            'Materials Studio'
_symmetry_space_group_name_H-M    'P1'
_symmetry_Int_Tables_number       1
_symmetry_cell_setting            triclinic
loop_
_symmetry_equiv_pos_as_xyz
  x,y,z
_cell_length_a                    16.9910
_cell_length_b                    16.9910
_cell_length_c                    16.9910
_cell_angle_alpha                 90.0000
_cell_angle_beta                  90.0000
_cell_angle_gamma                 90.0000
loop_
_atom_site_label
_atom_site_type_symbol
_atom_site_fract_x
_atom_site_fract_y
_atom_site_fract_z
_atom_site_U_iso_or_equiv
_atom_site_adp_type
_atom_site_occupancy
C1     C     0.36851   0.89914   0.68750   0.00000  Uiso   1.00
H2     H     0.37770   0.85890   0.72340   0.00000  Uiso   1.00
H3     H     0.45870   0.07980   0.57430   0.00000  Uiso   1.00
H4     H     0.40580   0.12280   0.63640   0.00000  Uiso   1.00
H5     H     0.37240   0.10390   0.55250   0.00000  Uiso   1.00
N6     N     0.40973   0.96832   0.68278   0.00000  Uiso   1.00
C7     C     0.37705   0.00790   0.62295   0.00000  Uiso   1.00
C8     C     0.40610   0.08550   0.59390   0.00000  Uiso   1.00
Zn9    Zn    0.50000   0.00000   0.75000   0.00000  Uiso   1.00
C10    C     0.63149   0.10086   0.68750   0.00000  Uiso   1.00
H11    H     0.62230   0.14110   0.72340   0.00000  Uiso   1.00
H12    H     0.54130   0.92020   0.57430   0.00000  Uiso   1.00
H13    H     0.59420   0.87720   0.63640   0.00000  Uiso   1.00
H14    H     0.62760   0.89610   0.55250   0.00000  Uiso   1.00
N15    N     0.59027   0.03168   0.68278   0.00000  Uiso   1.00
C16    C     0.62295   0.99210   0.62295   0.00000  Uiso   1.00
C17    C     0.59390   0.91450   0.59390   0.00000  Uiso   1.00
C18    C     0.63149   0.89914   0.31250   0.00000  Uiso   1.00
H19    H     0.62230   0.85890   0.27660   0.00000  Uiso   1.00
H20    H     0.54130   0.07980   0.42570   0.00000  Uiso   1.00
H21    H     0.59420   0.12280   0.36360   0.00000  Uiso   1.00
H22    H     0.62760   0.10390   0.44750   0.00000  Uiso   1.00
N23    N     0.59027   0.96832   0.31722   0.00000  Uiso   1.00
C24    C     0.62295   0.00790   0.37705   0.00000  Uiso   1.00
C25    C     0.59390   0.08550   0.40610   0.00000  Uiso   1.00
Zn26   Zn    0.50000   0.00000   0.25000   0.00000  Uiso   1.00
C27    C     0.36851   0.10086   0.31250   0.00000  Uiso   1.00
H28    H     0.37770   0.14110   0.27660   0.00000  Uiso   1.00
H29    H     0.45870   0.92020   0.42570   0.00000  Uiso   1.00
H30    H     0.40580   0.87720   0.36360   0.00000  Uiso   1.00
H31    H     0.37240   0.89610   0.44750   0.00000  Uiso   1.00
N32    N     0.40973   0.03168   0.31722   0.00000  Uiso   1.00
C33    C     0.37705   0.99210   0.37705   0.00000  Uiso   1.00
C34    C     0.40610   0.91450   0.40610   0.00000  Uiso   1.00
C35    C     0.68750   0.36851   0.89914   0.00000  Uiso   1.00
H36    H     0.72340   0.37770   0.85890   0.00000  Uiso   1.00
H37    H     0.57430   0.45870   0.07980   0.00000  Uiso   1.00
H38    H     0.63640   0.40580   0.12280   0.00000  Uiso   1.00
H39    H     0.55250   0.37240   0.10390   0.00000  Uiso   1.00
N40    N     0.68278   0.40973   0.96832   0.00000  Uiso   1.00
C41    C     0.62295   0.37705   0.00790   0.00000  Uiso   1.00
C42    C     0.59390   0.40610   0.08550   0.00000  Uiso   1.00
Zn43   Zn    0.75000   0.50000   0.00000   0.00000  Uiso   1.00
C44    C     0.68750   0.63149   0.10086   0.00000  Uiso   1.00
H45    H     0.72340   0.62230   0.14110   0.00000  Uiso   1.00
H46    H     0.57430   0.54130   0.92020   0.00000  Uiso   1.00
H47    H     0.63640   0.59420   0.87720   0.00000  Uiso   1.00
H48    H     0.55250   0.62760   0.89610   0.00000  Uiso   1.00
N49    N     0.68278   0.59027   0.03168   0.00000  Uiso   1.00
C50    C     0.62295   0.62295   0.99210   0.00000  Uiso   1.00
C51    C     0.59390   0.59390   0.91450   0.00000  Uiso   1.00
C52    C     0.31250   0.63149   0.89914   0.00000  Uiso   1.00
H53    H     0.27660   0.62230   0.85890   0.00000  Uiso   1.00
H54    H     0.42570   0.54130   0.07980   0.00000  Uiso   1.00
H55    H     0.36360   0.59420   0.12280   0.00000  Uiso   1.00
H56    H     0.44750   0.62760   0.10390   0.00000  Uiso   1.00
N57    N     0.31722   0.59027   0.96832   0.00000  Uiso   1.00
C58    C     0.37705   0.62295   0.00790   0.00000  Uiso   1.00
C59    C     0.40610   0.59390   0.08550   0.00000  Uiso   1.00
Zn60   Zn    0.25000   0.50000   0.00000   0.00000  Uiso   1.00
C61    C     0.31250   0.36851   0.10086   0.00000  Uiso   1.00
H62    H     0.27660   0.37770   0.14110   0.00000  Uiso   1.00
H63    H     0.42570   0.45870   0.92020   0.00000  Uiso   1.00
H64    H     0.36360   0.40580   0.87720   0.00000  Uiso   1.00
H65    H     0.44750   0.37240   0.89610   0.00000  Uiso   1.00
N66    N     0.31722   0.40973   0.03168   0.00000  Uiso   1.00
C67    C     0.37705   0.37705   0.99210   0.00000  Uiso   1.00
C68    C     0.40610   0.40610   0.91450   0.00000  Uiso   1.00
C69    C     0.89914   0.31250   0.63149   0.00000  Uiso   1.00
H70    H     0.85890   0.27660   0.62230   0.00000  Uiso   1.00
H71    H     0.07980   0.42570   0.54130   0.00000  Uiso   1.00
H72    H     0.12280   0.36360   0.59420   0.00000  Uiso   1.00
H73    H     0.10390   0.44750   0.62760   0.00000  Uiso   1.00
N74    N     0.96832   0.31722   0.59027   0.00000  Uiso   1.00
C75    C     0.00790   0.37705   0.62295   0.00000  Uiso   1.00
C76    C     0.08550   0.40610   0.59390   0.00000  Uiso   1.00
Zn77   Zn    0.00000   0.25000   0.50000   0.00000  Uiso   1.00
C78    C     0.10086   0.31250   0.36851   0.00000  Uiso   1.00
H79    H     0.14110   0.27660   0.37770   0.00000  Uiso   1.00
H80    H     0.92020   0.42570   0.45870   0.00000  Uiso   1.00
H81    H     0.87720   0.36360   0.40580   0.00000  Uiso   1.00
H82    H     0.89610   0.44750   0.37240   0.00000  Uiso   1.00
N83    N     0.03168   0.31722   0.40973   0.00000  Uiso   1.00
C84    C     0.99210   0.37705   0.37705   0.00000  Uiso   1.00
C85    C     0.91450   0.40610   0.40610   0.00000  Uiso   1.00
C86    C     0.89914   0.68750   0.36851   0.00000  Uiso   1.00
H87    H     0.85890   0.72340   0.37770   0.00000  Uiso   1.00
H88    H     0.07980   0.57430   0.45870   0.00000  Uiso   1.00
H89    H     0.12280   0.63640   0.40580   0.00000  Uiso   1.00
H90    H     0.10390   0.55250   0.37240   0.00000  Uiso   1.00
N91    N     0.96832   0.68278   0.40973   0.00000  Uiso   1.00
C92    C     0.00790   0.62295   0.37705   0.00000  Uiso   1.00
C93    C     0.08550   0.59390   0.40610   0.00000  Uiso   1.00
Zn94   Zn    0.00000   0.75000   0.50000   0.00000  Uiso   1.00
C95    C     0.10086   0.68750   0.63149   0.00000  Uiso   1.00
H96    H     0.14110   0.72340   0.62230   0.00000  Uiso   1.00
H97    H     0.92020   0.57430   0.54130   0.00000  Uiso   1.00
H98    H     0.87720   0.63640   0.59420   0.00000  Uiso   1.00
H99    H     0.89610   0.55250   0.62760   0.00000  Uiso   1.00
N100   N     0.03168   0.68278   0.59027   0.00000  Uiso   1.00
C101   C     0.99210   0.62295   0.62295   0.00000  Uiso   1.00
C102   C     0.91450   0.59390   0.59390   0.00000  Uiso   1.00
C103   C     0.89914   0.36851   0.68750   0.00000  Uiso   1.00
H104   H     0.85890   0.37770   0.72340   0.00000  Uiso   1.00
N105   N     0.96832   0.40973   0.68278   0.00000  Uiso   1.00
Zn106  Zn    0.00000   0.50000   0.75000   0.00000  Uiso   1.00
C107   C     0.10086   0.63149   0.68750   0.00000  Uiso   1.00
H108   H     0.14110   0.62230   0.72340   0.00000  Uiso   1.00
N109   N     0.03168   0.59027   0.68278   0.00000  Uiso   1.00
C110   C     0.89914   0.63149   0.31250   0.00000  Uiso   1.00
H111   H     0.85890   0.62230   0.27660   0.00000  Uiso   1.00
N112   N     0.96832   0.59027   0.31722   0.00000  Uiso   1.00
Zn113  Zn    0.00000   0.50000   0.25000   0.00000  Uiso   1.00
C114   C     0.10086   0.36851   0.31250   0.00000  Uiso   1.00
H115   H     0.14110   0.37770   0.27660   0.00000  Uiso   1.00
N116   N     0.03168   0.40973   0.31722   0.00000  Uiso   1.00
C117   C     0.36851   0.68750   0.89914   0.00000  Uiso   1.00
H118   H     0.37770   0.72340   0.85890   0.00000  Uiso   1.00
N119   N     0.40973   0.68278   0.96832   0.00000  Uiso   1.00
Zn120  Zn    0.50000   0.75000   0.00000   0.00000  Uiso   1.00
C121   C     0.63149   0.68750   0.10086   0.00000  Uiso   1.00
H122   H     0.62230   0.72340   0.14110   0.00000  Uiso   1.00
N123   N     0.59027   0.68278   0.03168   0.00000  Uiso   1.00
C124   C     0.63149   0.31250   0.89914   0.00000  Uiso   1.00
H125   H     0.62230   0.27660   0.85890   0.00000  Uiso   1.00
N126   N     0.59027   0.31722   0.96832   0.00000  Uiso   1.00
Zn127  Zn    0.50000   0.25000   0.00000   0.00000  Uiso   1.00
C128   C     0.36851   0.31250   0.10086   0.00000  Uiso   1.00
H129   H     0.37770   0.27660   0.14110   0.00000  Uiso   1.00
N130   N     0.40973   0.31722   0.03168   0.00000  Uiso   1.00
C131   C     0.31250   0.89914   0.63149   0.00000  Uiso   1.00
H132   H     0.27660   0.85890   0.62230   0.00000  Uiso   1.00
N133   N     0.31722   0.96832   0.59027   0.00000  Uiso   1.00
Zn134  Zn    0.25000   0.00000   0.50000   0.00000  Uiso   1.00
C135   C     0.31250   0.10086   0.36851   0.00000  Uiso   1.00
H136   H     0.27660   0.14110   0.37770   0.00000  Uiso   1.00
N137   N     0.31722   0.03168   0.40973   0.00000  Uiso   1.00
C138   C     0.68750   0.89914   0.36851   0.00000  Uiso   1.00
H139   H     0.72340   0.85890   0.37770   0.00000  Uiso   1.00
N140   N     0.68278   0.96832   0.40973   0.00000  Uiso   1.00
Zn141  Zn    0.75000   0.00000   0.50000   0.00000  Uiso   1.00
C142   C     0.68750   0.10086   0.63149   0.00000  Uiso   1.00
H143   H     0.72340   0.14110   0.62230   0.00000  Uiso   1.00
N144   N     0.68278   0.03168   0.59027   0.00000  Uiso   1.00
C145   C     0.86851   0.39914   0.18750   0.00000  Uiso   1.00
H146   H     0.87770   0.35890   0.22340   0.00000  Uiso   1.00
H147   H     0.95870   0.57980   0.07430   0.00000  Uiso   1.00
H148   H     0.90580   0.62280   0.13640   0.00000  Uiso   1.00
H149   H     0.87240   0.60390   0.05250   0.00000  Uiso   1.00
N150   N     0.90973   0.46832   0.18278   0.00000  Uiso   1.00
C151   C     0.87705   0.50790   0.12295   0.00000  Uiso   1.00
C152   C     0.90610   0.58550   0.09390   0.00000  Uiso   1.00
C153   C     0.13149   0.60086   0.18750   0.00000  Uiso   1.00
H154   H     0.12230   0.64110   0.22340   0.00000  Uiso   1.00
H155   H     0.04130   0.42020   0.07430   0.00000  Uiso   1.00
H156   H     0.09420   0.37720   0.13640   0.00000  Uiso   1.00
H157   H     0.12760   0.39610   0.05250   0.00000  Uiso   1.00
N158   N     0.09027   0.53168   0.18278   0.00000  Uiso   1.00
C159   C     0.12295   0.49210   0.12295   0.00000  Uiso   1.00
C160   C     0.09390   0.41450   0.09390   0.00000  Uiso   1.00
C161   C     0.13149   0.39914   0.81250   0.00000  Uiso   1.00
H162   H     0.12230   0.35890   0.77660   0.00000  Uiso   1.00
H163   H     0.04130   0.57980   0.92570   0.00000  Uiso   1.00
H164   H     0.09420   0.62280   0.86360   0.00000  Uiso   1.00
H165   H     0.12760   0.60390   0.94750   0.00000  Uiso   1.00
N166   N     0.09027   0.46832   0.81722   0.00000  Uiso   1.00
C167   C     0.12295   0.50790   0.87705   0.00000  Uiso   1.00
C168   C     0.09390   0.58550   0.90610   0.00000  Uiso   1.00
C169   C     0.86851   0.60086   0.81250   0.00000  Uiso   1.00
H170   H     0.87770   0.64110   0.77660   0.00000  Uiso   1.00
H171   H     0.95870   0.42020   0.92570   0.00000  Uiso   1.00
H172   H     0.90580   0.37720   0.86360   0.00000  Uiso   1.00
H173   H     0.87240   0.39610   0.94750   0.00000  Uiso   1.00
N174   N     0.90973   0.53168   0.81722   0.00000  Uiso   1.00
C175   C     0.87705   0.49210   0.87705   0.00000  Uiso   1.00
C176   C     0.90610   0.41450   0.90610   0.00000  Uiso   1.00
C177   C     0.18750   0.86851   0.39914   0.00000  Uiso   1.00
H178   H     0.22340   0.87770   0.35890   0.00000  Uiso   1.00
H179   H     0.07430   0.95870   0.57980   0.00000  Uiso   1.00
H180   H     0.13640   0.90580   0.62280   0.00000  Uiso   1.00
H181   H     0.05250   0.87240   0.60390   0.00000  Uiso   1.00
N182   N     0.18278   0.90973   0.46832   0.00000  Uiso   1.00
C183   C     0.12295   0.87705   0.50790   0.00000  Uiso   1.00
C184   C     0.09390   0.90610   0.58550   0.00000  Uiso   1.00
C185   C     0.18750   0.13149   0.60086   0.00000  Uiso   1.00
H186   H     0.22340   0.12230   0.64110   0.00000  Uiso   1.00
H187   H     0.07430   0.04130   0.42020   0.00000  Uiso   1.00
H188   H     0.13640   0.09420   0.37720   0.00000  Uiso   1.00
H189   H     0.05250   0.12760   0.39610   0.00000  Uiso   1.00
N190   N     0.18278   0.09027   0.53168   0.00000  Uiso   1.00
C191   C     0.12295   0.12295   0.49210   0.00000  Uiso   1.00
C192   C     0.09390   0.09390   0.41450   0.00000  Uiso   1.00
C193   C     0.81250   0.13149   0.39914   0.00000  Uiso   1.00
H194   H     0.77660   0.12230   0.35890   0.00000  Uiso   1.00
H195   H     0.92570   0.04130   0.57980   0.00000  Uiso   1.00
H196   H     0.86360   0.09420   0.62280   0.00000  Uiso   1.00
H197   H     0.94750   0.12760   0.60390   0.00000  Uiso   1.00
N198   N     0.81722   0.09027   0.46832   0.00000  Uiso   1.00
C199   C     0.87705   0.12295   0.50790   0.00000  Uiso   1.00
C200   C     0.90610   0.09390   0.58550   0.00000  Uiso   1.00
C201   C     0.81250   0.86851   0.60086   0.00000  Uiso   1.00
H202   H     0.77660   0.87770   0.64110   0.00000  Uiso   1.00
H203   H     0.92570   0.95870   0.42020   0.00000  Uiso   1.00
H204   H     0.86360   0.90580   0.37720   0.00000  Uiso   1.00
H205   H     0.94750   0.87240   0.39610   0.00000  Uiso   1.00
N206   N     0.81722   0.90973   0.53168   0.00000  Uiso   1.00
C207   C     0.87705   0.87705   0.49210   0.00000  Uiso   1.00
C208   C     0.90610   0.90610   0.41450   0.00000  Uiso   1.00
C209   C     0.39914   0.81250   0.13149   0.00000  Uiso   1.00
H210   H     0.35890   0.77660   0.12230   0.00000  Uiso   1.00
H211   H     0.57980   0.92570   0.04130   0.00000  Uiso   1.00
H212   H     0.62280   0.86360   0.09420   0.00000  Uiso   1.00
H213   H     0.60390   0.94750   0.12760   0.00000  Uiso   1.00
N214   N     0.46832   0.81722   0.09027   0.00000  Uiso   1.00
C215   C     0.50790   0.87705   0.12295   0.00000  Uiso   1.00
C216   C     0.58550   0.90610   0.09390   0.00000  Uiso   1.00
C217   C     0.60086   0.81250   0.86851   0.00000  Uiso   1.00
H218   H     0.64110   0.77660   0.87770   0.00000  Uiso   1.00
H219   H     0.42020   0.92570   0.95870   0.00000  Uiso   1.00
H220   H     0.37720   0.86360   0.90580   0.00000  Uiso   1.00
H221   H     0.39610   0.94750   0.87240   0.00000  Uiso   1.00
N222   N     0.53168   0.81722   0.90973   0.00000  Uiso   1.00
C223   C     0.49210   0.87705   0.87705   0.00000  Uiso   1.00
C224   C     0.41450   0.90610   0.90610   0.00000  Uiso   1.00
C225   C     0.39914   0.18750   0.86851   0.00000  Uiso   1.00
H226   H     0.35890   0.22340   0.87770   0.00000  Uiso   1.00
H227   H     0.57980   0.07430   0.95870   0.00000  Uiso   1.00
H228   H     0.62280   0.13640   0.90580   0.00000  Uiso   1.00
H229   H     0.60390   0.05250   0.87240   0.00000  Uiso   1.00
N230   N     0.46832   0.18278   0.90973   0.00000  Uiso   1.00
C231   C     0.50790   0.12295   0.87705   0.00000  Uiso   1.00
C232   C     0.58550   0.09390   0.90610   0.00000  Uiso   1.00
C233   C     0.60086   0.18750   0.13149   0.00000  Uiso   1.00
H234   H     0.64110   0.22340   0.12230   0.00000  Uiso   1.00
H235   H     0.42020   0.07430   0.04130   0.00000  Uiso   1.00
H236   H     0.37720   0.13640   0.09420   0.00000  Uiso   1.00
H237   H     0.39610   0.05250   0.12760   0.00000  Uiso   1.00
N238   N     0.53168   0.18278   0.09027   0.00000  Uiso   1.00
C239   C     0.49210   0.12295   0.12295   0.00000  Uiso   1.00
C240   C     0.41450   0.09390   0.09390   0.00000  Uiso   1.00
C241   C     0.39914   0.86851   0.18750   0.00000  Uiso   1.00
H242   H     0.35890   0.87770   0.22340   0.00000  Uiso   1.00
N243   N     0.46832   0.90973   0.18278   0.00000  Uiso   1.00
C244   C     0.60086   0.13149   0.18750   0.00000  Uiso   1.00
H245   H     0.64110   0.12230   0.22340   0.00000  Uiso   1.00
N246   N     0.53168   0.09027   0.18278   0.00000  Uiso   1.00
C247   C     0.39914   0.13149   0.81250   0.00000  Uiso   1.00
H248   H     0.35890   0.12230   0.77660   0.00000  Uiso   1.00
N249   N     0.46832   0.09027   0.81722   0.00000  Uiso   1.00
C250   C     0.60086   0.86851   0.81250   0.00000  Uiso   1.00
H251   H     0.64110   0.87770   0.77660   0.00000  Uiso   1.00
N252   N     0.53168   0.90973   0.81722   0.00000  Uiso   1.00
C253   C     0.86851   0.18750   0.39914   0.00000  Uiso   1.00
H254   H     0.87770   0.22340   0.35890   0.00000  Uiso   1.00
N255   N     0.90973   0.18278   0.46832   0.00000  Uiso   1.00
C256   C     0.13149   0.18750   0.60086   0.00000  Uiso   1.00
H257   H     0.12230   0.22340   0.64110   0.00000  Uiso   1.00
N258   N     0.09027   0.18278   0.53168   0.00000  Uiso   1.00
C259   C     0.13149   0.81250   0.39914   0.00000  Uiso   1.00
H260   H     0.12230   0.77660   0.35890   0.00000  Uiso   1.00
N261   N     0.09027   0.81722   0.46832   0.00000  Uiso   1.00
C262   C     0.86851   0.81250   0.60086   0.00000  Uiso   1.00
H263   H     0.87770   0.77660   0.64110   0.00000  Uiso   1.00
N264   N     0.90973   0.81722   0.53168   0.00000  Uiso   1.00
C265   C     0.81250   0.39914   0.13149   0.00000  Uiso   1.00
H266   H     0.77660   0.35890   0.12230   0.00000  Uiso   1.00
N267   N     0.81722   0.46832   0.09027   0.00000  Uiso   1.00
C268   C     0.81250   0.60086   0.86851   0.00000  Uiso   1.00
H269   H     0.77660   0.64110   0.87770   0.00000  Uiso   1.00
N270   N     0.81722   0.53168   0.90973   0.00000  Uiso   1.00
C271   C     0.18750   0.39914   0.86851   0.00000  Uiso   1.00
H272   H     0.22340   0.35890   0.87770   0.00000  Uiso   1.00
N273   N     0.18278   0.46832   0.90973   0.00000  Uiso   1.00
C274   C     0.18750   0.60086   0.13149   0.00000  Uiso   1.00
H275   H     0.22340   0.64110   0.12230   0.00000  Uiso   1.00
N276   N     0.18278   0.53168   0.09027   0.00000  Uiso   1.00
loop_
_geom_bond_atom_site_label_1
_geom_bond_atom_site_label_2
_geom_bond_distance
_geom_bond_site_symmetry_2
_ccdc_geom_bond_type
C1     H2      0.929   .     S
C1     N6      1.371   .     S
C1     C131    1.346   .     D
H3     C8      0.959   .     S
H4     C8      0.961   .     S
H5     C8      0.959   .     S
N6     C7      1.339   1_565 D
N6     Zn9     1.987   1_565 S
C7     N6      1.339   1_545 D
C7     C8      1.492   .     S
C7     N133    1.339   1_545 S
Zn9    N6      1.987   1_545 S
Zn9    N15     1.987   .     S
Zn9    N249    1.987   .     S
Zn9    N252    1.987   1_545 S
C10    H11     0.929   .     S
C10    N15     1.371   .     S
C10    C142    1.346   .     D
H12    C17     0.959   .     S
H13    C17     0.961   .     S
H14    C17     0.959   .     S
N15    C16     1.339   1_545 D
C16    N15     1.339   1_565 D
C16    C17     1.492   .     S
C16    N144    1.339   1_565 S
C18    H19     0.929   .     S
C18    N23     1.371   .     S
C18    C138    1.346   .     D
H20    C25     0.959   .     S
H21    C25     0.961   .     S
H22    C25     0.959   .     S
N23    C24     1.339   1_565 D
N23    Zn26    1.987   1_565 S
C24    N23     1.339   1_545 D
C24    C25     1.492   .     S
C24    N140    1.339   1_545 S
Zn26   N23     1.987   1_545 S
Zn26   N32     1.987   .     S
Zn26   N243    1.987   1_545 S
Zn26   N246    1.987   .     S
C27    H28     0.929   .     S
C27    N32     1.371   .     S
C27    C135    1.346   .     D
H29    C34     0.959   .     S
H30    C34     0.961   .     S
H31    C34     0.959   .     S
N32    C33     1.339   1_545 D
C33    N32     1.339   1_565 D
C33    C34     1.492   .     S
C33    N137    1.339   1_565 S
C35    H36     0.929   .     S
C35    N40     1.371   .     S
C35    C124    1.346   .     D
H37    C42     0.959   .     S
H38    C42     0.961   .     S
H39    C42     0.959   .     S
N40    C41     1.339   1_556 D
N40    Zn43    1.987   1_556 S
C41    N40     1.339   1_554 D
C41    C42     1.492   .     S
C41    N126    1.339   1_554 S
Zn43   N40     1.987   1_554 S
Zn43   N49     1.987   .     S
Zn43   N267    1.987   .     S
Zn43   N270    1.987   1_554 S
C44    H45     0.929   .     S
C44    N49     1.371   .     S
C44    C121    1.346   .     D
H46    C51     0.959   .     S
H47    C51     0.961   .     S
H48    C51     0.959   .     S
N49    C50     1.339   1_554 D
C50    N49     1.339   1_556 D
C50    C51     1.492   .     S
C50    N123    1.339   1_556 S
C52    H53     0.929   .     S
C52    N57     1.371   .     S
C52    C117    1.346   .     D
H54    C59     0.959   .     S
H55    C59     0.961   .     S
H56    C59     0.959   .     S
N57    C58     1.339   1_556 D
N57    Zn60    1.987   1_556 S
C58    N57     1.339   1_554 D
C58    C59     1.492   .     S
C58    N119    1.339   1_554 S
Zn60   N57     1.987   1_554 S
Zn60   N66     1.987   .     S
Zn60   N273    1.987   1_554 S
Zn60   N276    1.987   .     S
C61    H62     0.929   .     S
C61    N66     1.371   .     S
C61    C128    1.346   .     D
H63    C68     0.959   .     S
H64    C68     0.961   .     S
H65    C68     0.959   .     S
N66    C67     1.339   1_554 D
C67    N66     1.339   1_556 D
C67    C68     1.492   .     S
C67    N130    1.339   1_556 S
C69    H70     0.929   .     S
C69    N74     1.371   .     S
C69    C103    1.346   .     D
H71    C76     0.959   .     S
H72    C76     0.961   .     S
H73    C76     0.959   .     S
N74    C75     1.339   1_655 D
N74    Zn77    1.987   1_655 S
C75    N74     1.339   1_455 D
C75    C76     1.492   .     S
C75    N105    1.339   1_455 S
Zn77   N74     1.987   1_455 S
Zn77   N83     1.987   .     S
Zn77   N255    1.987   1_455 S
Zn77   N258    1.987   .     S
C78    H79     0.929   .     S
C78    N83     1.371   .     S
C78    C114    1.346   .     D
H80    C85     0.959   .     S
H81    C85     0.961   .     S
H82    C85     0.959   .     S
N83    C84     1.339   1_455 D
C84    N83     1.339   1_655 D
C84    C85     1.492   .     S
C84    N116    1.339   1_655 S
C86    H87     0.929   .     S
C86    N91     1.371   .     S
C86    C110    1.346   .     D
H88    C93     0.959   .     S
H89    C93     0.961   .     S
H90    C93     0.959   .     S
N91    C92     1.339   1_655 D
N91    Zn94    1.987   1_655 S
C92    N91     1.339   1_455 D
C92    C93     1.492   .     S
C92    N112    1.339   1_455 S
Zn94   N91     1.987   1_455 S
Zn94   N100    1.987   .     S
Zn94   N261    1.987   .     S
Zn94   N264    1.987   1_455 S
C95    H96     0.929   .     S
C95    N100    1.371   .     S
C95    C107    1.346   .     D
H97    C102    0.959   .     S
H98    C102    0.961   .     S
H99    C102    0.959   .     S
N100   C101    1.339   1_455 D
C101   N100    1.339   1_655 D
C101   C102    1.492   .     S
C101   N109    1.339   1_655 S
C103   H104    0.929   .     S
C103   N105    1.371   .     S
N105   C75     1.339   1_655 S
N105   Zn106   1.987   1_655 S
Zn106  N105    1.987   1_455 S
Zn106  N109    1.987   .     S
Zn106  N166    1.987   .     S
Zn106  N174    1.987   1_455 S
C107   H108    0.929   .     S
C107   N109    1.371   .     S
N109   C101    1.339   1_455 S
C110   H111    0.929   .     S
C110   N112    1.371   .     S
N112   C92     1.339   1_655 S
N112   Zn113   1.987   1_655 S
Zn113  N112    1.987   1_455 S
Zn113  N116    1.987   .     S
Zn113  N150    1.987   1_455 S
Zn113  N158    1.987   .     S
C114   H115    0.929   .     S
C114   N116    1.371   .     S
N116   C84     1.339   1_455 S
C117   H118    0.929   .     S
C117   N119    1.371   .     S
N119   C58     1.339   1_556 S
N119   Zn120   1.987   1_556 S
Zn120  N119    1.987   1_554 S
Zn120  N123    1.987   .     S
Zn120  N214    1.987   .     S
Zn120  N222    1.987   1_554 S
C121   H122    0.929   .     S
C121   N123    1.371   .     S
N123   C50     1.339   1_554 S
C124   H125    0.929   .     S
C124   N126    1.371   .     S
N126   C41     1.339   1_556 S
N126   Zn127   1.987   1_556 S
Zn127  N126    1.987   1_554 S
Zn127  N130    1.987   .     S
Zn127  N230    1.987   1_554 S
Zn127  N238    1.987   .     S
C128   H129    0.929   .     S
C128   N130    1.371   .     S
N130   C67     1.339   1_554 S
C131   H132    0.929   .     S
C131   N133    1.371   .     S
N133   C7      1.339   1_565 S
N133   Zn134   1.987   1_565 S
Zn134  N133    1.987   1_545 S
Zn134  N137    1.987   .     S
Zn134  N182    1.987   1_545 S
Zn134  N190    1.987   .     S
C135   H136    0.929   .     S
C135   N137    1.371   .     S
N137   C33     1.339   1_545 S
C138   H139    0.929   .     S
C138   N140    1.371   .     S
N140   C24     1.339   1_565 S
N140   Zn141   1.987   1_565 S
Zn141  N140    1.987   1_545 S
Zn141  N144    1.987   .     S
Zn141  N198    1.987   .     S
Zn141  N206    1.987   1_545 S
C142   H143    0.929   .     S
C142   N144    1.371   .     S
N144   C16     1.339   1_545 S
C145   H146    0.929   .     S
C145   N150    1.371   .     S
C145   C265    1.346   .     D
H147   C152    0.959   .     S
H148   C152    0.961   .     S
H149   C152    0.959   .     S
N150   Zn113   1.987   1_655 S
N150   C151    1.339   .     D
C151   C152    1.492   .     S
C151   N267    1.339   .     S
C153   H154    0.929   .     S
C153   N158    1.371   .     S
C153   C274    1.346   .     D
H155   C160    0.959   .     S
H156   C160    0.961   .     S
H157   C160    0.959   .     S
N158   C159    1.339   .     D
C159   C160    1.492   .     S
C159   N276    1.339   .     S
C161   H162    0.929   .     S
C161   N166    1.371   .     S
C161   C271    1.346   .     D
H163   C168    0.959   .     S
H164   C168    0.961   .     S
H165   C168    0.959   .     S
N166   C167    1.339   .     D
C167   C168    1.492   .     S
C167   N273    1.339   .     S
C169   H170    0.929   .     S
C169   N174    1.371   .     S
C169   C268    1.346   .     D
H171   C176    0.959   .     S
H172   C176    0.961   .     S
H173   C176    0.959   .     S
N174   Zn106   1.987   1_655 S
N174   C175    1.339   .     D
C175   C176    1.492   .     S
C175   N270    1.339   .     S
C177   H178    0.929   .     S
C177   N182    1.371   .     S
C177   C259    1.346   .     D
H179   C184    0.959   .     S
H180   C184    0.961   .     S
H181   C184    0.959   .     S
N182   Zn134   1.987   1_565 S
N182   C183    1.339   .     D
C183   C184    1.492   .     S
C183   N261    1.339   .     S
C185   H186    0.929   .     S
C185   N190    1.371   .     S
C185   C256    1.346   .     D
H187   C192    0.959   .     S
H188   C192    0.961   .     S
H189   C192    0.959   .     S
N190   C191    1.339   .     D
C191   C192    1.492   .     S
C191   N258    1.339   .     S
C193   H194    0.929   .     S
C193   N198    1.371   .     S
C193   C253    1.346   .     D
H195   C200    0.959   .     S
H196   C200    0.961   .     S
H197   C200    0.959   .     S
N198   C199    1.339   .     D
C199   C200    1.492   .     S
C199   N255    1.339   .     S
C201   H202    0.929   .     S
C201   N206    1.371   .     S
C201   C262    1.346   .     D
H203   C208    0.959   .     S
H204   C208    0.961   .     S
H205   C208    0.959   .     S
N206   Zn141   1.987   1_565 S
N206   C207    1.339   .     D
C207   C208    1.492   .     S
C207   N264    1.339   .     S
C209   H210    0.929   .     S
C209   N214    1.371   .     S
C209   C241    1.346   .     D
H211   C216    0.959   .     S
H212   C216    0.961   .     S
H213   C216    0.959   .     S
N214   C215    1.339   .     D
C215   C216    1.492   .     S
C215   N243    1.339   .     S
C217   H218    0.929   .     S
C217   N222    1.371   .     S
C217   C250    1.346   .     D
H219   C224    0.959   .     S
H220   C224    0.961   .     S
H221   C224    0.959   .     S
N222   Zn120   1.987   1_556 S
N222   C223    1.339   .     D
C223   C224    1.492   .     S
C223   N252    1.339   .     S
C225   H226    0.929   .     S
C225   N230    1.371   .     S
C225   C247    1.346   .     D
H227   C232    0.959   .     S
H228   C232    0.961   .     S
H229   C232    0.959   .     S
N230   Zn127   1.987   1_556 S
N230   C231    1.339   .     D
C231   C232    1.492   .     S
C231   N249    1.339   .     S
C233   H234    0.929   .     S
C233   N238    1.371   .     S
C233   C244    1.346   .     D
H235   C240    0.959   .     S
H236   C240    0.961   .     S
H237   C240    0.959   .     S
N238   C239    1.339   .     D
C239   C240    1.492   .     S
C239   N246    1.339   .     S
C241   H242    0.929   .     S
C241   N243    1.371   .     S
N243   Zn26    1.987   1_565 S
C244   H245    0.929   .     S
C244   N246    1.371   .     S
C247   H248    0.929   .     S
C247   N249    1.371   .     S
C250   H251    0.929   .     S
C250   N252    1.371   .     S
N252   Zn9     1.987   1_565 S
C253   H254    0.929   .     S
C253   N255    1.371   .     S
N255   Zn77    1.987   1_655 S
C256   H257    0.929   .     S
C256   N258    1.371   .     S
C259   H260    0.929   .     S
C259   N261    1.371   .     S
C262   H263    0.929   .     S
C262   N264    1.371   .     S
N264   Zn94    1.987   1_655 S
C265   H266    0.929   .     S
C265   N267    1.371   .     S
C268   H269    0.929   .     S
C268   N270    1.371   .     S
N270   Zn43    1.987   1_556 S
C271   H272    0.929   .     S
C271   N273    1.371   .     S
N273   Zn60    1.987   1_556 S
C274   H275    0.929   .     S
C274   N276    1.371   .     S
